*HEADING
Prometheus analytic-tetra-smoke-v1 | analytic tetrahedron (not YUBI evidence) | sha256:0000000000000000000000000000000000000000000000000000000000000000
** SI units: m, N, Pa
*NODE, NSET=NALL
1, 0.0000000000e+00, 0.0000000000e+00, 0.0000000000e+00
2, 1.0000000000e+00, 0.0000000000e+00, 0.0000000000e+00
3, 0.0000000000e+00, 1.0000000000e+00, 0.0000000000e+00
4, 0.0000000000e+00, 0.0000000000e+00, 1.0000000000e+00
*ELEMENT, TYPE=C3D4, ELSET=COMPONENT
1, 1, 2, 3, 4
*MATERIAL, NAME=REVIEWED_MATERIAL
*ELASTIC
2.0000000000e+11, 3.0000000000e-01
*SOLID SECTION, ELSET=COMPONENT, MATERIAL=REVIEWED_MATERIAL
*BOUNDARY
1, 1, 3, 0.0000000000e+00
2, 1, 3, 0.0000000000e+00
3, 1, 3, 0.0000000000e+00
*STEP
*STATIC, SOLVER=SPOOLES
*CLOAD
4, 3, -1.0000000000e+03
*NODE FILE
U
*EL FILE
S
*NODE PRINT, NSET=NALL
U
*EL PRINT, ELSET=COMPONENT
S
*END STEP
